/*--------------------------------*- C++ -*----------------------------------*\
  =========                 |
  \\      /  F ield         | OpenFOAM: The Open Source CFD Toolbox
   \\    /   O peration     | Website:  https://openfoam.org
    \\  /    A nd           | Version:  7
     \\/     M anipulation  |
\*---------------------------------------------------------------------------*/
FoamFile
{
    version     2.0;
    format      ascii;
    class       dictionary;
    object      blockMeshDict;
};

// * * * * * * * * * * * * * * * * * * * * * * * * * * * * * * * * * * * * * //

convertToMeters 1.0;

vertices
(
    (0.7459 -0.0784 0.0000)
    (0.0078 0.0746 0.0000)
    (-0.7459 0.0784 0.0000)
    (-0.0078 -0.0746 0.0000)
    (0.7459 0.2500 0.0000)
    (0.0078 0.2500 0.0000)
    (-0.7459 0.2500 0.0000)
    (-0.7459 -0.2500 0.0000)
    (-0.0078 -0.2500 0.0000)
    (0.7459 -0.2500 0.0000)
    (5.0000 -0.0784 0.0000)
    (5.0000 0.2500 0.0000)
    (5.0000 4.0000 0.0000)
    (0.7459 4.0000 0.0000)
    (0.0078 4.0000 0.0000)
    (-0.7459 4.0000 0.0000)
    (-5.0000 4.0000 0.0000)
    (-5.0000 0.2500 0.0000)
    (-5.0000 0.0784 0.0000)
    (-5.0000 -0.2500 0.0000)
    (-5.0000 -4.0000 0.0000)
    (-0.7459 -4.0000 0.0000)
    (-0.0078 -4.0000 0.0000)
    (0.7459 -4.0000 0.0000)
    (5.0000 -4.0000 0.0000)
    (5.0000 -0.2500 0.0000)
    (0.7459 -0.0784 0.0100)
    (0.0078 0.0746 0.0100)
    (-0.7459 0.0784 0.0100)
    (-0.0078 -0.0746 0.0100)
    (0.7459 0.2500 0.0100)
    (0.0078 0.2500 0.0100)
    (-0.7459 0.2500 0.0100)
    (-0.7459 -0.2500 0.0100)
    (-0.0078 -0.2500 0.0100)
    (0.7459 -0.2500 0.0100)
    (5.0000 -0.0784 0.0100)
    (5.0000 0.2500 0.0100)
    (5.0000 4.0000 0.0100)
    (0.7459 4.0000 0.0100)
    (0.0078 4.0000 0.0100)
    (-0.7459 4.0000 0.0100)
    (-5.0000 4.0000 0.0100)
    (-5.0000 0.2500 0.0100)
    (-5.0000 0.0784 0.0100)
    (-5.0000 -0.2500 0.0100)
    (-5.0000 -4.0000 0.0100)
    (-0.7459 -4.0000 0.0100)
    (-0.0078 -4.0000 0.0100)
    (0.7459 -4.0000 0.0100)
    (5.0000 -4.0000 0.0100)
    (5.0000 -0.2500 0.0100)
);

blocks
(
    hex (0 4 5 1 26 30 31 27) (42 125 1) simpleGrading (10.0 1.0 1.0)
    hex (1 5 6 2 27 31 32 28) (42 125 1) simpleGrading (10.0 1.0 1.0)
    hex (2 7 8 3 28 33 34 29) (42 125 1) simpleGrading (10.0 1.0 1.0)
    hex (3 8 9 0 29 34 35 26) (42 125 1) simpleGrading (10.0 1.0 1.0)
    hex (10 11 4 0 36 37 30 26) (42 153 1) simpleGrading (10.0 1.0 1.0)
    hex (11 12 13 4 37 38 39 30) (181 153 1) simpleGrading (1.0 1.0 1.0)
    hex (4 13 14 5 30 39 40 31) (181 125 1) simpleGrading (1.0 1.0 1.0)
    hex (5 14 15 6 31 40 41 32) (181 125 1) simpleGrading (1.0 1.0 1.0)
    hex (6 15 16 17 32 41 42 43) (181 153 1) simpleGrading (1.0 1.0 1.0)
    hex (2 6 17 18 28 32 43 44) (42 153 1) simpleGrading (10.0 1.0 1.0)
    hex (18 19 7 2 44 45 33 28) (42 153 1) simpleGrading (10.0 1.0 1.0)
    hex (19 20 21 7 45 46 47 33) (181 153 1) simpleGrading (1.0 1.0 1.0)
    hex (7 21 22 8 33 47 48 34) (181 125 1) simpleGrading (1.0 1.0 1.0)
    hex (8 22 23 9 34 48 49 35) (181 125 1) simpleGrading (1.0 1.0 1.0)
    hex (9 23 24 25 35 49 50 51) (181 153 1) simpleGrading (1.0 1.0 1.0)
    hex (0 9 25 10 26 35 51 36) (42 153 1) simpleGrading (10.0 1.0 1.0)
);

edges
(
);

boundary
(
    inlet
    {
        type patch;
        faces
        (
            (17 43 42 16)
            (18 44 43 17)
            (19 45 44 18)
            (20 46 45 19)
        );
    }
    outlet
    {
        type patch;
        faces
        (
            (11 37 38 12)
            (10 36 37 11)
            (25 51 36 10)
            (24 50 51 25)
        );
    }
    top
    {
        type patch;
        faces
        (
            (16 15 41 42)
            (15 14 40 41)
            (14 13 39 40)
            (13 12 38 39)
        );
    }
    bottom
    {
        type patch;
        faces
        (
            (20 21 47 46)
            (21 22 48 47)
            (22 23 49 48)
            (23 24 50 49)
        );
    }
    airfoil
    {
        type wall;
        faces
        (
            (1 0 26 27)
            (2 1 27 28)
            (2 3 29 28)
            (3 0 26 29)
        );
    }
);

mergePatchPairs
(
);

// ************************************************************************* //






