/*--------------------------------*- C++ -*----------------------------------*\
  =========                 |
  \\      /  F ield         | OpenFOAM: The Open Source CFD Toolbox
   \\    /   O peration     | Website:  https://openfoam.org
    \\  /    A nd           | Version:  7
     \\/     M anipulation  |
\*---------------------------------------------------------------------------*/
FoamFile
{
    version     2.0;
    format      ascii;
    class       dictionary;
    object      blockMeshDict;
}
// * * * * * * * * * * * * * * * * * * * * * * * * * * * * * * * * * * * * * //

convertToMeters 1;

vertices
(
    (0 0 -0.05)
    (0.6 0 -0.05)
    (0 0.2 -0.05)
    (0.6 0.2 -0.05)
    (3 0.2 -0.05)
    (0 1 -0.05)
    (0.6 1 -0.05)
    (3 1 -0.05)
    (0 0 0.05)
    (0.6 0 0.05)
    (0 0.2 0.05)
    (0.6 0.2 0.05)
    (3 0.2 0.05)
    (0 1 0.05)
    (0.6 1 0.05)
    (3 1 0.05)
);

blocks
(
    hex (0 1 4 3 8 9 12 11)   (24 8 1) simpleGrading (1 1 1)
    hex (1 2 5 4 9 10 13 12) (24 32 1) simpleGrading (1 1 1)
    hex (2 6 7 5 10 14 15 13) (96 32 1) simpleGrading (1 1 1)
);

edges
(
);

boundary
(
    inlet
    {
        type patch;
        faces
        (

            (0 8 11 3)

        );
    }
    outlet
    {
        type patch;
        faces
        (
            (6 7 15 14)
        );
    }
    bottom
    {
        type symmetryPlane;
        faces
        (
            (0 1 9 8)
        );
    }
    top
    {
        type symmetryPlane;
        faces
        (
            (3 11 12 4)
            (4 12 13 5)
            (5 13 15 7)
        );
    }
    obstacle
    {
        type patch;
        faces
        (
            (1 2 10 9)
            (2 6 14 10)
        );
    }
);

mergePatchPairs
(
);

// ************************************************************************* //
